STAAD SPACE
START JOB INFORMATION
ENGINEER DATE 11-Dec-17
END JOB INFORMATION
INPUT WIDTH 79
UNIT METER KN
JOINT COORDINATES
1 0 0 0; 2 0 1.5 0; 3 0 4.50001 0; 4 0 11.5 0; 5 5.00001 0 0;
6 5.00001 1.5 0; 7 5.00001 4.50001 0; 8 5.00001 11.5 0; 9 0 0 5.00001;
10 0 1.5 5.00001; 11 0 4.50001 5.00001; 12 0 11.5 5.00001;
13 5.00001 0 5.00001; 14 5.00001 1.5 5.00001;
15 5.00001 4.50001 5.00001; 16 5.00001 11.5 5.00001; 17 0 11.5 0.500001;
18 0 10.8 0.500001; 19 0 10.8 0; 20 0 11.5 1; 21 0 10.8 1;
22 0 11.5 1.5; 23 0 10.8 1.5; 24 0 11.5 2; 25 0 10.8 2; 26 0 11.5 2.5;
27 0 10.8 2.5; 28 0 11.5 3.00001; 29 0 10.8 3.00001; 30 0 11.5 3.50001;
31 0 10.8 3.50001; 32 0 11.5 4.00001; 33 0 10.8 4.00001;
34 0 11.5 4.50001; 35 0 10.8 4.50001; 36 0 10.8 5.00001;
37 0 10.1 0.500001; 38 0 10.1 0; 39 0 10.1 1; 40 0 10.1 1.5;
41 0 10.1 2; 42 0 10.1 2.5; 43 0 10.1 3.00001; 44 0 10.1 3.50001;
45 0 10.1 4.00001; 46 0 10.1 4.50001; 47 0 10.1 5.00001;
48 0 9.40002 0.500001; 49 0 9.40002 0; 50 0 9.40002 1; 51 0 9.40002 1.5;
52 0 9.40002 2; 53 0 9.40002 2.5; 54 0 9.40002 3.00001;
55 0 9.40002 3.50001; 56 0 9.40002 4.00001; 57 0 9.40002 4.50001;
58 0 9.40002 5.00001; 59 0 8.70002 0.500001; 60 0 8.70002 0;
61 0 8.70002 1; 62 0 8.70002 1.5; 63 0 8.70002 2; 64 0 8.70002 2.5;
65 0 8.70002 3.00001; 66 0 8.70002 3.50001; 67 0 8.70002 4.00001;
68 0 8.70002 4.50001; 69 0 8.70002 5.00001; 70 0 8.00002 0.500001;
# ... 178 like lines cut
MEMBER INCIDENCES
1 1 2; 2 2 3; 5 2 6; 6 3 349; 7 4 259; 8 5 6; 9 6 7; 12 2 10; 13 3 125;
14 4 17; 16 6 14; 17 7 448; 18 8 366; 19 9 10; 20 10 11; 23 10 14;
24 11 233; 25 12 134; 26 13 14; 27 14 15; 29 17 20; 32 20 22; 34 22 24;
36 24 26; 38 26 28; 40 28 30; 42 30 32; 44 32 34; 46 34 12; 146 125 126;
148 126 127; 150 127 128; 152 128 129; 154 129 130; 156 130 131;
158 131 132; 160 132 133; 162 133 11; 165 134 136; 167 136 138;
169 138 140; 171 140 142; 173 142 144; 175 144 146; 177 146 148;
179 148 150; 181 150 16; 273 233 234; 275 234 235; 277 235 236;
279 236 237; 281 237 238; 283 238 239; 285 239 240; 287 240 241;
289 241 15; 292 242 8; 295 245 242; 297 247 245; 299 249 247;
301 251 249; 303 253 251; 305 255 253; 307 257 255; 309 259 257;
400 341 7; 402 342 341; 404 343 342; 406 344 343; 408 345 344;
410 346 345; 412 347 346; 414 348 347; 416 349 348; 419 350 16;
421 352 350; 423 354 352; 425 356 354; 427 358 356; 429 360 358;
431 362 360; 433 364 362; 435 366 364; 518 440 15; 520 441 440;
522 442 441; 524 443 442; 526 444 443; 528 445 444; 530 446 445;
532 447 446; 534 448 447;
ELEMENT INCIDENCES SHELL
31 4 17 18 19; 33 17 20 21 18; 35 20 22 23 21; 37 22 24 25 23;
39 24 26 27 25; 41 26 28 29 27; 43 28 30 31 29; 45 30 32 33 31;
47 32 34 35 33; 49 34 12 36 35; 51 19 18 37 38; 52 18 21 39 37;
53 21 23 40 39; 54 23 25 41 40; 55 25 27 42 41; 56 27 29 43 42;
57 29 31 44 43; 58 31 33 45 44; 59 33 35 46 45; 61 35 36 47 46;
63 38 37 48 49; 64 37 39 50 48; 65 39 40 51 50; 66 40 41 52 51;
67 41 42 53 52; 68 42 43 54 53; 69 43 44 55 54; 70 44 45 56 55;
71 45 46 57 56; 73 46 47 58 57; 75 49 48 59 60; 76 48 50 61 59;
77 50 51 62 61; 78 51 52 63 62; 79 52 53 64 63; 80 53 54 65 64;
81 54 55 66 65; 82 55 56 67 66; 83 56 57 68 67; 85 57 58 69 68;
87 60 59 70 71; 88 59 61 72 70; 89 61 62 73 72; 90 62 63 74 73;
91 63 64 75 74; 92 64 65 76 75; 93 65 66 77 76; 94 66 67 78 77;
95 67 68 79 78; 97 68 69 80 79; 99 71 70 81 82; 100 70 72 83 81;
101 72 73 84 83; 102 73 74 85 84; 103 74 75 86 85; 104 75 76 87 86;
105 76 77 88 87; 106 77 78 89 88; 107 78 79 90 89; 109 79 80 91 90;
111 82 81 92 93; 112 81 83 94 92; 113 83 84 95 94; 114 84 85 96 95;
115 85 86 97 96; 116 86 87 98 97; 117 87 88 99 98; 118 88 89 100 99;
119 89 90 101 100; 121 90 91 102 101; 123 93 92 103 104;
124 92 94 105 103; 125 94 95 106 105; 126 95 96 107 106;
127 96 97 108 107; 128 97 98 109 108; 129 98 99 110 109;
# ... 141 like lines cut
ELEMENT PROPERTY
31 33 35 37 39 41 43 45 47 49 51 TO 59 61 63 TO 71 73 75 TO 83 85 87 -
88 TO 95 97 99 TO 107 109 111 TO 119 121 123 TO 131 133 135 TO 143 -
145 147 149 151 153 155 157 159 161 163 164 166 168 170 172 174 176 -
178 180 182 184 TO 193 195 TO 204 206 TO 215 217 TO 226 228 TO 237 -
239 TO 248 250 TO 259 261 TO 270 272 274 276 278 280 282 284 286 288 -
290 291 294 296 298 300 302 304 306 308 310 311 313 TO 322 -
324 TO 333 335 TO 344 346 TO 355 357 TO 366 368 TO 377 379 TO 388 -
390 TO 399 401 403 405 407 409 411 413 415 417 418 420 422 424 426 -
428 430 432 434 436 TO 517 519 521 523 525 527 529 531 533 -
535 TO 636 THICKNESS 0.15
DEFINE MATERIAL START
ISOTROPIC CONCRETE
E 2.17184e+007
POISSON 0.17
DENSITY 23.5615
ALPHA 5.5e-006
DAMP 0.05
END DEFINE MATERIAL
MEMBER PROPERTY
5 TO 7 12 TO 14 16 TO 18 23 TO 25 29 32 34 36 38 40 42 44 46 146 148 -
150 152 154 156 158 160 162 165 167 169 171 173 175 177 179 181 273 -
275 277 279 281 283 285 287 289 292 295 297 299 301 303 305 307 309 -
400 402 404 406 408 410 412 414 416 419 421 423 425 427 429 431 433 -
435 518 520 522 524 526 528 530 532 534 PRIS YD 0.23 ZD 0.23
1 2 8 9 19 20 26 27 PRIS YD 0.3 ZD 0.3
CONSTANTS
MATERIAL CONCRETE ALL
SUPPORTS
1 5 9 13 FIXED
LOAD 1 LOADTYPE None  TITLE LOAD CASE 1
SELFWEIGHT Y -1 LIST 1 2 5 TO 9 12 TO 14 16 TO 20 23 TO 27 29 -
31 TO 47 49 51 TO 59 61 63 TO 71 73 75 TO 83 85 87 TO 95 97 -
99 TO 107 109 111 TO 119 121 123 TO 131 133 135 TO 143 145 TO 182 -
184 TO 193 195 TO 204 206 TO 215 217 TO 226 228 TO 237 239 TO 248 -
250 TO 259 261 TO 270 272 TO 292 294 TO 311 313 TO 322 324 TO 333 -
335 TO 344 346 TO 355 357 TO 366 368 TO 377 379 TO 388 390 TO 636
ELEMENT LOAD
537 TO 636 PR LY -8
31 TRAP JT 0.1 0.1 0.49 0.49
33 TRAP JT 0.1 0.1 0.49 0.49
35 TRAP JT 0.1 0.1 0.49 0.49
37 TRAP JT 0.1 0.1 0.49 0.49
39 TRAP JT 0.1 0.1 0.49 0.49
41 TRAP JT 0.1 0.1 0.49 0.49
43 TRAP JT 0.1 0.1 0.49 0.49
45 TRAP JT 0.1 0.1 0.49 0.49
47 TRAP JT 0.1 0.1 0.49 0.49
49 TRAP JT 0.1 0.1 0.49 0.49
51 TRAP JT 0.49 0.49 0.88 0.88
52 TRAP JT 0.49 0.49 0.88 0.88
53 TRAP JT 0.49 0.49 0.88 0.88
54 TRAP JT 0.49 0.49 0.88 0.88
55 TRAP JT 0.49 0.49 0.88 0.88
56 TRAP JT 0.49 0.49 0.88 0.88
57 TRAP JT 0.49 0.49 0.88 0.88
58 TRAP JT 0.49 0.49 0.88 0.88
59 TRAP JT 0.49 0.49 0.88 0.88
61 TRAP JT 0.49 0.49 0.88 0.88
# ... 480 like lines cut
PERFORM ANALYSIS PRINT ALL
FINISH
